Circuit: * G:\Freelancing Career\Fiver Projects\project32_yuchenyang367\Draft2.asc

Direct Newton iteration for .op point succeeded.

Date: Thu Nov 23 17:19:13 2023
Total elapsed time: 0.175 seconds.

tnom = 27
temp = 27
method = modified trap
totiter = 4263
traniter = 4252
tranpoints = 1336
accept = 1209
rejected = 127
matrix size = 40
fillins = 43
solver = Normal
Avg thread counts: 1.1/1.2/1.2/1.1
Matrix Compiler1: 4.02 KB object code size  2.2/1.2/[0.7]
Matrix Compiler2: 3.98 KB object code size  1.4/2.2/[0.8]

